[TITLE]

[JUNCTIONS]
;ID                      Elevation       Demand Pattern                 
 NODE0                              0               0                            ;
 NODE1                   6.6928598429    142.44644114 B1005                      ;
 NODE2                   6.6928598429     141.4935159 B1006                      ;
 NODE3                              0               0                            ;
 NODE4                              0               0                            ;
 NODE5                              0               0                            ;
 NODE6                              0               0                            ;
 NODE7                              0               0                            ;
 NODE8                              0               0                            ;
 NODE9                   6.6928598429    103.31297799 B1001                      ;
 NODE10                  6.6928598429    70.278236374 B1011                      ;
 NODE11                             0               0                            ;
 NODE12                             0               0                            ;
 NODE13                  6.6928598429    45.009835454 B1014                      ;
 NODE14                             0               0                            ;
 NODE15                  6.6928598429    141.66821886 B1008                      ;
 NODE16                             0               0                            ;
 NODE17                  6.6928598429     325.1857378 B1000                      ;
 NODE18                             0               0                            ;
 NODE19                             0               0                            ;
 NODE20                             0               0                            ;
 NODE21                  6.6928598429    123.38793636 B1007                      ;
 NODE22                             0               0                            ;
 NODE23                             0               0                            ;
 NODE24                             0               0                            ;
 NODE25                  6.6928598429    94.784297103 B1003                      ;
 NODE26                  6.6928598429    98.246592138 B1004                      ;
 NODE27                  6.6928598429    152.54744867 B1012                      ;
 NODE28                             0               0                            ;
 NODE29                             0               0                            ;
 NODE30                             0               0                            ;
 NODE31                  6.6928598429    84.095652339 B1013                      ;
 NODE32                             0               0                            ;
 NODE33                             0               0                            ;
 NODE34                  6.6928598429    50.870325674 B1010                      ;
 NODE35                             0               0                            ;
 NODE36                             0               0                            ;
 NODE37                  6.6928598429    98.246592138 B1002                      ;

[RESERVOIRS]
;ID                                   Head                  Pattern
 NODE38                  249.34383202                reservoir   ;

[TANKS]
;ID                              Elevation           Init Level            Min Level            Max Level             Diameter           Min Volume Volume Curve         Overflow            

[PIPES]
;ID                   Node1                Node2                              Length             Diameter            Roughness           Minor Loss               Status
 PIPE0                NODE0                NODE22                  74.116591131    2.1456692913             100               0                 Open   ;
 PIPE1                NODE0                NODE35                  92.580365337     6.311023622             100               0                 Open   ;
 PIPE2                NODE0                NODE7                   140.93641521     6.311023622             100               0                 Open   ;
 PIPE3                NODE1                NODE28                  76.672106392    2.7677165354             100               0                 Open   ;
 PIPE4                NODE2                NODE7                   79.088048561    2.7677165354             100               0                 Open   ;
 PIPE5                NODE3                NODE33                  65.172750091    1.6968503937             100               0                 Open   ;
 PIPE6                NODE3                NODE13                  101.84060925    1.6968503937             100               0                 Open   ;
 PIPE7                NODE3                NODE28                  197.45068035    2.1456692913             100               0                 Open   ;
 PIPE8                NODE4                NODE11                  31.287408443    8.2716535433             100               0                 Open   ;
 PIPE9                NODE4                NODE26                  68.868954151    2.7677165354             100               0                 Open   ;
 PIPE10               NODE4                NODE36                  90.017174622    8.2716535433             100               0                 Open   ;
 PIPE11               NODE5                NODE12                  55.287155089    3.2480314961             100               0                 Open   ;
 PIPE12               NODE5                NODE21                  68.578366595    2.7677165354             100               0                 Open   ;
 PIPE13               NODE5                NODE24                  118.08527426    4.2165354331             100               0                 Open   ;
 PIPE14               NODE6                NODE16                  12.423719022    5.2165354331             100               0                 Open   ;
 PIPE15               NODE6                NODE31                  94.436860712    2.1456692913             100               0                 Open   ;
 PIPE16               NODE6                NODE8                   108.81347703    4.2165354331             100               0                 Open   ;
 PIPE17               NODE7                NODE23                  147.43913935     6.311023622             100               0                 Open   ;
 PIPE18               NODE8                NODE18                  214.51467791    4.2165354331             100               0                 Open   ;
 PIPE19               NODE9                NODE35                  51.496061892    2.7677165354             100               0                 Open   ;
 PIPE20               NODE10               NODE19                  61.543231961    2.1456692913             100               0                 Open   ;
 PIPE21               NODE11               NODE27                  97.167667371    3.2480314961             100               0                 Open   ;
 PIPE22               NODE11               NODE16                  198.11534841    5.2165354331             100               0                 Open   ;
 PIPE23               NODE12               NODE14                  67.762276525    2.7677165354             100               0                 Open   ;
 PIPE24               NODE12               NODE32                  135.98780581    2.1456692913             100               0                 Open   ;
 PIPE25               NODE14               NODE15                  73.369392602    2.7677165354             100               0                 Open   ;
 PIPE26               NODE17               NODE18                     53.126548    4.2165354331             100               0                 Open   ;
 PIPE27               NODE19               NODE29                  75.072706399    2.1456692913             100               0                 Open   ;
 PIPE28               NODE20               NODE34                   97.68539099    1.6968503937             100               0                 Open   ;
 PIPE29               NODE20               NODE33                   103.4767339    1.6968503937             100               0                 Open   ;
 PIPE30               NODE22               NODE25                  54.646992363    2.1456692913             100               0                 Open   ;
 PIPE31               NODE23               NODE36                  150.01694857     6.311023622             100               0                 Open   ;
 PIPE32               NODE24               NODE37                  57.527045562    2.7677165354             100               0                 Open   ;
 PIPE33               NODE24               NODE30                   78.69882708    5.2165354331             100               0                 Open   ;
 PIPE34               NODE28               NODE36                  112.13458784    3.2480314961             100               0                 Open   ;
 PIPE35               NODE29               NODE32                  171.89170695    2.1456692913             100               0                 Open   ;
 PIPE36               NODE30               NODE35                   91.45081054    5.2165354331             100               0                 Open   ;
 PIPE37               NODE38               NODE11                  5.5677699306    10.354330709             100               0                 Open   ;

[PUMPS]
;ID                   Node1                Node2                Properties          

[VALVES]
;ID                   Node1                Node2                            Diameter Type              Setting           Minor Loss

[TAGS]
;type      name       tag       

[DEMANDS]
;ID        Demand     Pattern   

[STATUS]
;ID        Setting   

[PATTERNS]
;ID        Multipliers

B1000 0.000000 0.000000 0.000000 0.000000 0.000000 0.000000
B1000 0.000000 0.267643 0.206056 0.172796 0.136899 0.130549
B1000 0.139341 0.114432 0.083272 0.082930 0.085861 0.107302
B1000 0.000000 0.000000 0.000000 0.000000 0.000000 0.000000
B1000 0.000000 0.000000 0.000000 0.000000 0.000000 0.000000
B1000 0.000000 0.277656 0.221001 0.195604 0.158730 0.153211
B1000 0.159951 0.135775 0.109109 0.110574 0.116190 0.140415
B1000 0.000000 0.000000 0.000000 0.000000 0.000000 0.000000
B1000 0.000000 0.000000 0.000000 0.000000 0.000000 0.000000
B1000 0.000000 0.000000 0.000000 0.000000 0.000000 0.000000
B1000 0.000000 0.000000 0.000000 0.000000 0.000000 0.000000
B1000 0.000000 0.000000 0.000000 0.000000 0.000000 0.000000
B1000 0.000000 0.000000 0.000000 0.000000 0.000000 0.000000
B1000 0.000000 0.000000 0.000000 0.000000 0.000000 0.000000
B1000 0.000000 0.000000 0.000000 0.000000 0.000000 0.000000
B1000 0.000000 0.000000 0.000000 0.000000 0.000000 0.000000
B1000 0.480635 0.465543 0.450940 0.439853 0.428620 0.418510
B1000 0.408840 0.988718 0.967814 0.951355 0.734994 0.637949
B1000 0.593993 0.491624 0.391551 0.360391 0.335629 0.347155
B1000 0.000000 0.000000 0.000000 0.000000 0.000000 0.000000
B1000 0.000000 0.000000 0.000000 0.000000 0.000000 0.000000
B1000 0.000000 0.615873 0.478095 0.407766 0.333871 0.306325
B1000 0.300904 0.254652 0.206203 0.197705 0.193700 0.213529
B1000 0.000000 0.000000 0.000000 0.000000 0.000000 0.000000
B1000 0.000000 0.000000 0.000000 0.000000 0.000000 0.000000
B1000 0.000000 0.495775 0.385543 0.328694 0.263297 0.236923
B1000 0.238779 0.206349 0.163565 0.160244 0.159267 0.181001
B1000 0.000000 0.000000 0.000000 0.000000 0.000000 0.000000
B1000 0.000000 0.000000 0.000000 0.000000 0.000000 0.000000
B1000 0.000000 0.398144 0.313553 0.269646 0.221587 0.209621
B1000 0.215971 0.186520 0.151258 0.149402 0.148181 0.168840
B1000 0.000000 0.000000 0.000000 0.000000 0.000000 0.000000
B1000 0.000000 0.000000 0.000000 0.000000 0.000000 0.000000
B1000 0.000000 0.399316 0.320342 0.277753 0.231502 0.218950
B1000 0.223687 0.192283 0.158486 0.157949 0.157949 0.178657
B1000 0.000000 0.000000 0.000000 0.000000 0.000000 0.000000
B1000 0.000000 0.000000 0.000000 0.000000 0.000000 0.000000
B1000 0.000000 0.000000 0.000000 0.000000 0.000000 0.000000
B1000 0.000000 0.000000 0.000000 0.000000 0.000000 0.000000
B1000 0.000000 0.000000 0.000000 0.000000 0.000000 0.000000
B1000 0.000000 0.000000 0.000000 0.000000 0.000000 0.000000
B1000 0.000000 0.000000 0.000000 0.000000 0.000000 0.000000
B1000 0.000000 0.000000 0.000000 0.000000 0.000000 0.000000
B1000 0.000000 0.000000 0.000000 0.000000 0.000000 0.000000
B1000 0.487179 0.471697 0.457094 0.443761 0.431111 0.419878
B1000 0.407131 0.989011 0.968059 0.950379 0.735531 0.641758
B1000 0.598291 0.492308 0.391551 0.360244 0.336313 0.346374
B1000 0.000000 0.000000 0.000000 0.000000 0.000000 0.000000
B1000 0.000000 0.000000 0.000000 0.000000 0.000000 0.000000
B1000 0.000000 0.614750 0.476484 0.397998 0.326105 0.298168
B1000 0.293187 0.242784 0.194969 0.189402 0.185006 0.202882
B1000 0.000000 0.000000 0.000000 0.000000 0.000000 0.000000
B1000 0.000000 0.000000 0.000000 0.000000 0.000000 0.000000
B1000 0.000000 0.392821 0.305201 0.261245 0.215873 0.204493
B1000 0.212161 0.178999 0.141490 0.137387 0.138901 0.159023
B1000 0.000000 0.000000 0.000000 0.000000 0.000000 0.000000
B1000 0.000000 0.000000 0.000000 0.000000 0.000000 0.000000
B1000 0.000000 0.328547 0.259341 0.223394 0.184615 0.176947
B1000 0.185983 0.156630 0.120098 0.116337 0.119853 0.141587
B1000 0.000000 0.000000 0.000000 0.000000 0.000000 0.000000
B1000 0.000000 0.000000 0.000000 0.000000 0.000000 0.000000
B1000 0.000000 0.326398 0.258168 0.221490 0.183053 0.176264
B1000 0.184811 0.162198 0.127961 0.124396 0.126203 0.149744
B1000 0.000000 0.000000 0.000000 0.000000 0.000000 0.000000
B1000 0.000000 0.000000 0.000000 0.000000 0.000000 0.000000
B1000 0.000000 0.000000 0.000000 0.000000 0.000000 0.000000
B1000 0.000000 0.000000 0.000000 0.000000 0.000000 0.000000
B1000 0.000000 0.000000 0.000000 0.000000 0.000000 0.000000
B1000 0.000000 0.000000 0.000000 0.000000 0.000000 0.000000
B1000 0.000000 0.000000 0.000000 0.000000 0.000000 0.000000
B1000 0.000000 0.000000 0.000000 0.000000 0.000000 0.000000
B1000 0.000000 0.000000 0.000000 0.000000 0.000000 0.000000
B1000 0.034335 0.067204 0.094017 0.117411 0.133529 0.148523
B1000 0.161465 0.965031 0.862466 0.684298 0.538901 0.477656
B1000 0.449963 0.373040 0.300024 0.279365 0.264567 0.278486
B1000 0.000000 0.000000 0.000000 0.000000 0.000000 0.000000
B1000 0.000000 0.000000 0.000000 0.000000 0.000000 0.000000
B1000 0.000000 0.500415 0.389646 0.333822 0.273211 0.256752
B1000 0.258413 0.214945 0.169915 0.163761 0.162442 0.183639
B1000 0.000000 0.000000 0.000000 0.000000 0.000000 0.000000
B1000 0.000000 0.000000 0.000000 0.000000 0.000000 0.000000
B1000 0.000000 0.357802 0.277753 0.236190 0.187448 0.172747
B1000 0.182125 0.151795 0.113260 0.116825 0.120684 0.142320
B1000 0.000000 0.000000 0.000000 0.000000 0.000000 0.000000
B1000 0.000000 0.000000 0.000000 0.000000 0.000000 0.000000
B1000 0.000000 0.328059 0.261685 0.225739 0.180171 0.168791
B1000 0.176313 0.148523 0.112967 0.109695 0.112527 0.136068
B1000 0.000000 0.000000 0.000000 0.000000 0.000000 0.000000
B1000 0.000000 0.000000 0.000000 0.000000 0.000000 0.000000
B1000 0.000000 0.320244 0.249963 0.215385 0.175433 0.168254
B1000 0.174896 0.146813 0.112576 0.113162 0.117509 0.145543
B1000 0.000000 0.000000 0.000000 0.000000 0.000000 0.000000
B1000 0.000000 0.000000 0.000000 0.000000 0.000000 0.000000
B1000 0.000000 0.000000 0.000000 0.000000 0.000000 0.000000
B1000 0.000000 0.000000 0.000000 0.000000 0.000000 0.000000
B1000 0.000000 0.000000 0.000000 0.000000 0.000000 0.000000
B1000 0.000000 0.000000 0.000000 0.000000 0.000000 0.000000
B1000 0.000000 0.000000 0.000000 0.000000 0.000000 0.000000
B1000 0.000000 0.000000 0.000000 0.000000 0.000000 0.000000
B1000 0.000000 0.000000 0.000000 0.000000 0.000000 0.000000
B1000 0.309988 0.302515 0.291722 0.285031 0.285031 0.281123
B1000 0.279023 0.976459 0.953553 0.781392 0.606496 0.531868
B1000 0.500757 0.411038 0.327912 0.303834 0.289817 0.303590
B1000 0.000000 0.000000 0.000000 0.000000 0.000000 0.000000
B1000 0.000000 0.000000 0.000000 0.000000 0.000000 0.000000
B1000 0.000000 0.578706 0.455433 0.394774 0.324200 0.299683
B1000 0.298120 0.257582 0.210354 0.199512 0.192967 0.212747
B1000 0.000000 0.000000 0.000000 0.000000 0.000000 0.000000
B1000 0.000000 0.000000 0.000000 0.000000 0.000000 0.000000
B1000 0.000000 0.433407 0.338413 0.288938 0.235458 0.219976
B1000 0.221441 0.193455 0.151697 0.148376 0.147741 0.166838
B1000 0.000000 0.000000 0.000000 0.000000 0.000000 0.000000
B1000 0.000000 0.000000 0.000000 0.000000 0.000000 0.000000
B1000 0.000000 0.366838 0.286740 0.240391 0.194139 0.182564
B1000 0.188913 0.160537 0.127863 0.127179 0.127424 0.146862
B1000 0.000000 0.000000 0.000000 0.000000 0.000000 0.000000
B1000 0.000000 0.000000 0.000000 0.000000 0.000000 0.000000
B1000 0.000000 0.313260 0.246935 0.210696 0.170354 0.161368
B1000 0.166593 0.136020 0.107106 0.107937 0.114969 0.143492
B1000 0.000000 0.000000 0.000000 0.000000 0.000000 0.000000
B1000 0.000000 0.000000 0.000000 0.000000 0.000000 0.000000
B1000 0.000000 0.000000 0.000000 0.000000 0.000000 0.000000
B1000 0.000000 0.000000 0.000000 0.000000 0.000000 0.000000
B1000 0.000000 0.000000 0.000000 0.000000 0.000000 0.000000
B1000 0.000000 0.000000 0.000000 0.000000 0.000000 0.000000
B1000 0.000000 0.000000 0.000000 0.000000 0.000000 0.000000
B1000 0.000000 0.000000 0.000000 0.000000 0.000000 0.000000
B1000 0.000000 0.000000 0.000000 0.000000 0.000000 0.000000
B1000 0.428816 0.412894 0.398730 0.383150 0.368938 0.358437
B1000 0.357558 0.984029 0.961368 0.860024 0.655873 0.569084
B1000 0.533089 0.435311 0.339341 0.309402 0.289475 0.305543
B1000 0.000000 0.000000 0.000000 0.000000 0.000000 0.000000
B1000 0.000000 0.000000 0.000000 0.000000 0.000000 0.000000
B1000 0.000000 0.473114 0.357900 0.294359 0.236190 0.217289
B1000 0.218022 0.173431 0.127619 0.123956 0.122393 0.143736
B1000 0.000000 0.000000 0.000000 0.000000 0.000000 0.000000
B1000 0.000000 0.000000 0.000000 0.000000 0.000000 0.000000
B1000 0.000000 0.355897 0.278437 0.232430 0.181929 0.165031
B1000 0.169866 0.140269 0.104176 0.104029 0.108816 0.135726
B1000 0.000000 0.000000 0.000000 0.000000 0.000000 0.000000
B1000 0.000000 0.000000 0.000000 0.000000 0.000000 0.000000
B1000 0.000000 0.319267 0.243614 0.203077 0.161758 0.155849
B1000 0.160977 0.133431 0.099731 0.100562 0.106716 0.129768
B1000 0.000000 0.000000 0.000000 0.000000 0.000000 0.000000
B1000 0.000000 0.000000 0.000000 0.000000 0.000000 0.000000
B1000 0.000000 0.307692 0.233602 0.195604 0.159463 0.150330
B1000 0.154676 0.127619 0.094408 0.095189 0.098901 0.122442
B1000 0.000000 0.000000 0.000000 0.000000 0.000000 0.000000
B1000 0.000000 0.000000 0.000000 0.000000 0.000000 0.000000
B1000 0.000000 0.000000 0.000000 0.000000 0.000000 0.000000
B1000 0.000000 0.000000 0.000000 0.000000 0.000000 0.000000
B1000 0.000000 0.000000 0.000000 0.000000 0.000000 0.000000
B1000 0.000000 0.000000 0.000000 0.000000 0.000000 0.000000
B1000 0.000000 0.000000 0.000000 0.000000 0.000000 0.000000
B1000 0.000000 0.000000 0.000000 0.000000 0.000000 0.000000
B1000 0.000000 0.000000 0.000000 0.000000 0.000000 0.000000
B1000 0.184811 0.199170 0.203370 0.208547 0.215385 0.227399
B1000 0.233846 0.971819 0.936606 0.740464 0.579048 0.514921
B1000 0.485665 0.393700 0.306862 0.283956 0.268669 0.287179
B1000 0.000000 0.000000 0.000000 0.000000 0.000000 0.000000
B1000 0.000000 0.000000 0.000000 0.000000 0.000000 0.000000
B1000 0.000000 0.533431 0.412063 0.346813 0.287473 0.267057
B1000 0.270623 0.233700 0.193651 0.188571 0.188571 0.211087
B1000 0.000000 0.000000 0.000000 0.000000 0.000000 0.000000
B1000 0.000000 0.000000 0.000000 0.000000 0.000000 0.000000
B1000 0.000000 0.539243 0.422711 0.364689 0.302320 0.277851
B1000 0.273797 0.233309 0.189499 0.182613 0.184518 0.206349
B1000 0.000000 0.000000 0.000000 0.000000 0.000000 0.000000
B1000 0.000000 0.000000 0.000000 0.000000 0.000000 0.000000
B1000 0.000000 0.476337 0.378852 0.320879 0.266422 0.247619
B1000 0.250256 0.216654 0.177436 0.171575 0.170061 0.193065
B1000 0.000000 0.000000 0.000000 0.000000 0.000000 0.000000
B1000 0.000000 0.000000 0.000000 0.000000 0.000000 0.000000
B1000 0.000000 0.475946 0.380220 0.330794 0.271306 0.250403
B1000 0.247424 0.209866 0.170501 0.166398 0.162930 0.184274
B1000 0.000000 0.000000 0.000000 0.000000 0.000000 0.000000
B1000 0.000000 0.000000 0.000000 0.000000 0.000000 0.000000
B1000 0.000000 0.000000 0.000000 0.000000 0.000000 0.000000
B1000 0.000000 0.000000 0.000000 0.000000 0.000000 0.000000
B1000 0.000000 0.000000 0.000000 0.000000 0.000000 0.000000
B1000 0.000000 0.000000 0.000000 0.000000 0.000000 0.000000
B1000 0.000000 0.000000 0.000000 0.000000 0.000000 0.000000
B1000 0.000000 0.000000 0.000000 0.000000 0.000000 0.000000
B1000 0.000000 0.000000 0.000000 0.000000 0.000000 0.000000
B1000 0.548669 0.534847 0.522198 0.508571 0.497192 0.488889
B1000 0.472283 0.993895 0.973480 0.958730 0.790672 0.663785
B1000 0.609426 0.480977 0.369670 0.337680 0.315995 0.329231
B1000 0.000000 0.000000 0.000000 0.000000 0.000000 0.000000
B1000 0.000000 0.000000 0.000000 0.000000 0.000000 0.000000
B1000 0.000000 0.570305 0.435214 0.366984 0.292747 0.264860
B1000 0.257778 0.215433 0.166642 0.157851 0.153504 0.174066
B1000 0.000000 0.000000 0.000000 0.000000 0.000000 0.000000
B1000 0.000000 0.000000 0.000000 0.000000 0.000000 0.000000
B1000 0.000000 0.344029 0.266520 0.224176 0.177241 0.165128
B1000 0.169719 0.134701 0.098608 0.093529 0.096068 0.122784
B1000 0.000000 0.000000 0.000000 0.000000 0.000000 0.000000
B1000 0.000000 0.000000 0.000000 0.000000 0.000000 0.000000
B1000 0.000000 0.292747 0.227497 0.188669 0.146960 0.138071
B1000 0.144762 0.118632 0.088645 0.089182 0.094847 0.117558
B1000 0.000000 0.000000 0.000000 0.000000 0.000000 0.000000
B1000 0.000000 0.000000 0.000000 0.000000 0.000000 0.000000
B1000 0.000000 0.279902 0.219292 0.184664 0.142711 0.132650
B1000 0.141245 0.113651 0.083956 0.081661 0.086740 0.109988
B1000 0.000000 0.000000 0.000000 0.000000 0.000000 0.000000
B1000 0.000000 0.000000 0.000000 0.000000 0.000000 0.000000
B1000 0.000000 0.000000 0.000000 0.000000 0.000000 0.000000
B1000 0.000000 0.000000 0.000000 0.000000 0.000000 0.000000
B1000 0.000000 0.000000 0.000000 0.000000 0.000000 0.000000
B1000 0.000000 0.000000 0.000000 0.000000 0.000000 0.000000
B1000 0.000000 0.000000 0.000000 0.000000 0.000000 0.000000
B1000 0.000000 0.000000 0.000000 0.000000 0.000000 0.000000
B1000 0.000000 0.000000 0.000000 0.000000 0.000000 0.000000
B1000 0.000000 0.000000 0.000000 0.000000 0.000000 0.000000
B1000 0.000000 0.814799 0.588571 0.453822 0.360684 0.324151
B1000 0.311258 0.243907 0.177241 0.167961 0.161514 0.179536
B1000 0.000000 0.000000 0.000000 0.000000 0.000000 0.000000
B1000 0.000000 0.000000 0.000000 0.000000 0.000000 0.000000
B1000 0.000000 0.319072 0.235702 0.186471 0.147302 0.133871
B1000 0.138950 0.107009 0.068816 0.070965 0.073797 0.095922
B1000 0.000000 0.000000 0.000000 0.000000 0.000000 0.000000
B1000 0.000000 0.000000 0.000000 0.000000 0.000000 0.000000
B1000 0.000000 0.226911 0.169133 0.134359 0.097241 0.090159
B1000 0.097241 0.073700 0.040244 0.044444 0.051722 0.073309
B1000 0.000000 0.000000 0.000000 0.000000 0.000000 0.000000
B1000 0.000000 0.000000 0.000000 0.000000 0.000000 0.000000
B1000 0.000000 0.186813 0.135971 0.108230 0.078681 0.067253
B1000 0.081172 0.064908 0.043321 0.043175 0.048889 0.071209
B1000 0.000000 0.000000 0.000000 0.000000 0.000000 0.000000
B1000 0.000000 0.000000 0.000000 0.000000 0.000000 0.000000
B1000 0.000000 0.232918 0.170696 0.127277 0.092894 0.083565
B1000 0.090647 0.066422 0.036777 0.039463 0.045617 0.068620
B1000 0.000000 0.000000 0.000000 0.000000 0.000000 0.000000
B1000 0.000000 0.000000 0.000000 0.000000 0.000000 0.000000
B1000 0.000000 0.000000 0.000000 0.000000 0.000000 0.000000
B1000 0.000000 0.000000 0.000000 0.000000 0.000000 0.000000
B1000 0.000000 0.000000 0.000000 0.000000 0.000000 0.000000
B1000 0.000000 0.000000 0.000000 0.000000 0.000000 0.000000
B1000 0.000000 0.000000 0.000000 0.000000 0.000000 0.000000
B1000 0.000000 0.000000 0.000000 0.000000 0.000000 0.000000
B1000 0.000000 0.000000 0.000000 0.000000 0.000000 0.000000
B1000 0.000000 0.000000 0.000000 0.000000 0.000000 0.000000
B1000 0.000000 0.562784 0.417045 0.330989 0.259927 0.231306
B1000 0.230281 0.184322 0.133626 0.123468 0.123272 0.143541
B1000 0.000000 0.000000 0.000000 0.000000 0.000000 0.000000
B1000 0.000000 0.000000 0.000000 0.000000 0.000000 0.000000
B1000 0.000000 0.289670 0.218559 0.178462 0.139048 0.129524
B1000 0.132698 0.102662 0.065934 0.067204 0.073748 0.098559
B1000 0.000000 0.000000 0.000000 0.000000 0.000000 0.000000
B1000 0.000000 0.000000 0.000000 0.000000 0.000000 0.000000
B1000 0.000000 0.253089 0.194579 0.166056 0.136020 0.132112
B1000 0.141148 0.116777 0.085372 0.083858 0.087717 0.112137
B1000 0.000000 0.000000 0.000000 0.000000 0.000000 0.000000
B1000 0.000000 0.000000 0.000000 0.000000 0.000000 0.000000
B1000 0.000000 0.291819 0.223394 0.190085 0.166154 0.153407
B1000 0.154042 0.128791 0.103053 0.101490 0.105641 0.130940
B1000 0.000000 0.000000 0.000000 0.000000 0.000000 0.000000
B1000 0.000000 0.000000 0.000000 0.000000 0.000000 0.000000
B1000 0.000000 0.346081 0.266227 0.222564 0.174066 0.170745
B1000 0.170794 0.144274 0.104615 0.104469 0.106813 0.137631
B1000 0.000000 0.000000 0.000000 0.000000 0.000000 0.000000
B1000 0.000000 0.000000 0.000000 0.000000 0.000000 0.000000
B1000 0.000000 0.000000 0.000000 0.000000 0.000000 0.000000
B1000 0.000000 0.000000 0.000000 0.000000 0.000000 0.000000
B1000 0.000000 0.000000 0.000000 0.000000 0.000000 0.000000
B1000 0.000000 0.000000 0.000000 0.000000 0.000000 0.000000
B1000 0.000000 0.000000 0.000000 0.000000 0.000000 0.000000
B1000 0.000000 0.000000 0.000000 0.000000 0.000000 0.000000
B1000 0.000000 0.000000 0.000000 0.000000 0.000000 0.000000
B1000 0.410549 0.407033 0.403614 0.401758 0.395995 0.395849
B1000 0.393797 0.987302 0.966398 0.940220 0.721221 0.625397
B1000 0.571966 0.470672 0.375092 0.338852 0.312088 0.325031
B1000 0.000000 0.000000 0.000000 0.000000 0.000000 0.000000
B1000 0.000000 0.000000 0.000000 0.000000 0.000000 0.000000
B1000 0.000000 0.591453 0.461392 0.390037 0.317900 0.291575
B1000 0.290940 0.247326 0.198388 0.189597 0.184127 0.203272
B1000 0.000000 0.000000 0.000000 0.000000 0.000000 0.000000
B1000 0.000000 0.000000 0.000000 0.000000 0.000000 0.000000
B1000 0.000000 0.418071 0.328547 0.280293 0.227546 0.211282
B1000 0.218071 0.181148 0.143590 0.139096 0.139536 0.162979
B1000 0.000000 0.000000 0.000000 0.000000 0.000000 0.000000
B1000 0.000000 0.000000 0.000000 0.000000 0.000000 0.000000
B1000 0.000000 0.374164 0.290598 0.250061 0.205031 0.189939
B1000 0.194383 0.163614 0.126789 0.123565 0.122882 0.144469
B1000 0.000000 0.000000 0.000000 0.000000 0.000000 0.000000
B1000 0.000000 0.000000 0.000000 0.000000 0.000000 0.000000
B1000 0.000000 0.388376 0.295433 0.243956 0.189792 0.173284
B1000 0.171038 0.137143 0.098608 0.096947 0.099927 0.122540
B1000 0.000000 0.000000 0.000000 0.000000 0.000000 0.000000
B1000 0.000000 0.000000 0.000000 0.000000 0.000000 0.000000
B1000 0.000000 0.000000 0.000000 0.000000 0.000000 0.000000
B1000 0.000000 0.000000 0.000000 0.000000 0.000000 0.000000
B1000 0.000000 0.000000 0.000000 0.000000 0.000000 0.000000
B1000 0.000000 0.000000 0.000000 0.000000 0.000000 0.000000
B1000 0.000000 0.000000 0.000000 0.000000 0.000000 0.000000
B1000 0.000000 0.000000 0.000000 0.000000 0.000000 0.000000
B1000 0.000000 0.000000 0.000000 0.000000 0.000000 0.000000
B1000 0.000000 0.000000 0.000000 0.000000 0.000000 0.001465
B1000 0.035263 0.953309 0.718877 0.560781 0.438584 0.388523
B1000 0.370842 0.295873 0.220464 0.201758 0.189206 0.210501
B1000 0.000000 0.000000 0.000000 0.000000 0.000000 0.000000
B1000 0.000000 0.000000 0.000000 0.000000 0.000000 0.000000
B1000 0.000000 0.417094 0.305690 0.241465 0.183199 0.163223
B1000 0.160684 0.120879 0.076093 0.073016 0.076190 0.098999
B1000 0.000000 0.000000 0.000000 0.000000 0.000000 0.000000
B1000 0.000000 0.000000 0.000000 0.000000 0.000000 0.000000
B1000 0.000000 0.239560 0.169231 0.128840 0.091722 0.080977
B1000 0.090208 0.063590 0.029792 0.031160 0.037509 0.059731
B1000 0.000000 0.000000 0.000000 0.000000 0.000000 0.000000
B1000 0.000000 0.000000 0.000000 0.000000 0.000000 0.000000
B1000 0.000000 0.185983 0.124933 0.088449 0.058901 0.050794
B1000 0.063101 0.039512 0.006496 0.010647 0.017094 0.040244
B1000 0.000000 0.000000 0.000000 0.000000 0.000000 0.000000
B1000 0.000000 0.000000 0.000000 0.000000 0.000000 0.000000
B1000 0.000000 0.122295 0.083028 0.060073 0.035946 0.031648
B1000 0.045763 0.025934 0.006056 0.008254 0.019096 0.041661
B1000 0.000000 0.000000 0.000000 0.000000 0.000000 0.000000
B1000 0.000000 0.000000 0.000000 0.000000 0.000000 0.000000
B1000 0.000000 0.000000 0.000000 0.000000 0.000000 0.000000
B1000 0.000000 0.000000 0.000000 0.000000 0.000000 0.000000
B1000 0.000000 0.000000 0.000000 0.000000 0.000000 0.000000
B1000 0.000000 0.000000 0.000000 0.000000 0.000000 0.000000
B1000 0.000000 0.000000 0.000000 0.000000 0.000000 0.000000
B1000 0.000000 0.000000 0.000000 0.000000 0.000000 0.000000
B1000 0.000000 0.000000 0.000000 0.000000 0.000000 0.000000
B1000 0.000000 0.000000 0.000000 0.000000 0.000000 0.000000
B1000 0.000000 0.360147 0.261099 0.201074 0.148571 0.133138
B1000 0.138901 0.102515 0.056899 0.054847 0.056654 0.078095
B1000 0.000000 0.000000 0.000000 0.000000 0.000000 0.000000
B1000 0.000000 0.000000 0.000000 0.000000 0.000000 0.000000
B1000 0.000000 0.200928 0.137387 0.096361 0.062515 0.056166
B1000 0.065983 0.038974 0.006056 0.004835 0.010501 0.034579
B1000 0.000000 0.000000 0.000000 0.000000 0.000000 0.000000
B1000 0.000000 0.000000 0.000000 0.000000 0.000000 0.000000