[TITLE]

[JUNCTIONS]
;ID                      Elevation       Demand Pattern                 
 NODE0                              0               0                            ;
 NODE1                   6.6928598429    60.447224325 B1005                      ;
 NODE2                   6.6928598429    53.347931295 B1006                      ;
 NODE3                              0               0                            ;
 NODE4                              0               0                            ;
 NODE5                              0               0                            ;
 NODE6                              0               0                            ;
 NODE7                              0               0                            ;
 NODE8                              0               0                            ;
 NODE9                   6.6928598429     37.98995286 B1001                      ;
 NODE10                  6.6928598429     103.8053227 B1011                      ;
 NODE11                             0               0                            ;
 NODE12                             0               0                            ;
 NODE13                  6.6928598429    136.88771058 B1014                      ;
 NODE14                             0               0                            ;
 NODE15                  6.6928598429    60.272521365 B1008                      ;
 NODE16                             0               0                            ;
 NODE17                  6.6928598429    114.20808989 B1000                      ;
 NODE18                             0               0                            ;
 NODE19                             0               0                            ;
 NODE20                             0               0                            ;
 NODE21                  6.6928598429    48.297427528 B1007                      ;
 NODE22                             0               0                            ;
 NODE23                             0               0                            ;
 NODE24                             0               0                            ;
 NODE25                  6.6928598429     33.01885953 B1003                      ;
 NODE26                  6.6928598429    36.528800827 B1004                      ;
 NODE27                  6.6928598429    195.73084408 B1012                      ;
 NODE28                             0               0                            ;
 NODE29                             0               0                            ;
 NODE30                             0               0                            ;
 NODE31                  6.6928598429    26.189561984 B1013                      ;
 NODE32                             0               0                            ;
 NODE33                             0               0                            ;
 NODE34                  6.6928598429    46.169227828 B1010                      ;
 NODE35                             0               0                            ;
 NODE36                             0               0                            ;
 NODE37                  6.6928598429    35.083530881 B1002                      ;

[RESERVOIRS]
;ID                                   Head                  Pattern
 NODE38                  282.15223097                reservoir   ;

[TANKS]
;ID                              Elevation           Init Level            Min Level            Max Level             Diameter           Min Volume Volume Curve         Overflow            

[PIPES]
;ID                   Node1                Node2                              Length             Diameter            Roughness           Minor Loss               Status
 PIPE0                NODE0                NODE22                  74.116591131    1.4645669291             100               0                 Open   ;
 PIPE1                NODE0                NODE35                  92.580365337    5.2165354331             100               0                 Open   ;
 PIPE2                NODE0                NODE7                   140.93641521    5.2165354331             100               0                 Open   ;
 PIPE3                NODE1                NODE28                  76.672106392    2.1456692913             100               0                 Open   ;
 PIPE4                NODE2                NODE7                   79.088048561    1.6968503937             100               0                 Open   ;
 PIPE5                NODE3                NODE33                  65.172750091    1.6968503937             100               0                 Open   ;
 PIPE6                NODE3                NODE13                  101.84060925    2.7677165354             100               0                 Open   ;
 PIPE7                NODE3                NODE28                  197.45068035    3.2480314961             100               0                 Open   ;
 PIPE8                NODE4                NODE11                  31.287408443    4.2165354331             100               0                 Open   ;
 PIPE9                NODE4                NODE26                  68.868954151    1.4645669291             100               0                 Open   ;
 PIPE10               NODE4                NODE36                  90.017174622    4.2165354331             100               0                 Open   ;
 PIPE11               NODE5                NODE12                  55.287155089     6.311023622             100               0                 Open   ;
 PIPE12               NODE5                NODE21                  68.578366595    1.6968503937             100               0                 Open   ;
 PIPE13               NODE5                NODE24                  118.08527426    5.2165354331             100               0                 Open   ;
 PIPE14               NODE6                NODE16                  12.423719022    2.7677165354             100               0                 Open   ;
 PIPE15               NODE6                NODE31                  94.436860712    1.1220472441             100               0                 Open   ;
 PIPE16               NODE6                NODE8                   108.81347703    2.7677165354             100               0                 Open   ;
 PIPE17               NODE7                NODE23                  147.43913935    4.2165354331             100               0                 Open   ;
 PIPE18               NODE8                NODE18                  214.51467791    2.7677165354             100               0                 Open   ;
 PIPE19               NODE9                NODE35                  51.496061892    1.4645669291             100               0                 Open   ;
 PIPE20               NODE10               NODE19                  61.543231961    2.7677165354             100               0                 Open   ;
 PIPE21               NODE11               NODE27                  97.167667371    3.2480314961             100               0                 Open   ;
 PIPE22               NODE11               NODE16                  198.11534841    2.7677165354             100               0                 Open   ;
 PIPE23               NODE12               NODE14                  67.762276525    2.1456692913             100               0                 Open   ;
 PIPE24               NODE12               NODE32                  135.98780581     6.311023622             100               0                 Open   ;
 PIPE25               NODE14               NODE15                  73.369392602    2.1456692913             100               0                 Open   ;
 PIPE26               NODE17               NODE18                     53.126548    2.7677165354             100               0                 Open   ;
 PIPE27               NODE19               NODE29                  75.072706399     6.311023622             100               0                 Open   ;
 PIPE28               NODE20               NODE34                   97.68539099    1.6968503937             100               0                 Open   ;
 PIPE29               NODE20               NODE33                   103.4767339    1.6968503937             100               0                 Open   ;
 PIPE30               NODE22               NODE25                  54.646992363    1.4645669291             100               0                 Open   ;
 PIPE31               NODE23               NODE36                  150.01694857    4.2165354331             100               0                 Open   ;
 PIPE32               NODE24               NODE37                  57.527045562    1.4645669291             100               0                 Open   ;
 PIPE33               NODE24               NODE30                   78.69882708    5.2165354331             100               0                 Open   ;
 PIPE34               NODE28               NODE36                  112.13458784    3.2480314961             100               0                 Open   ;
 PIPE35               NODE29               NODE32                  171.89170695     6.311023622             100               0                 Open   ;
 PIPE36               NODE30               NODE35                   91.45081054    5.2165354331             100               0                 Open   ;
 PIPE37               NODE38               NODE19                  5.5677699306     6.311023622             100               0                 Open   ;

[PUMPS]
;ID                   Node1                Node2                Properties          

[VALVES]
;ID                   Node1                Node2                            Diameter Type              Setting           Minor Loss

[TAGS]
;type      name       tag       

[DEMANDS]
;ID        Demand     Pattern   

[STATUS]
;ID        Setting   

[PATTERNS]
;ID        Multipliers

B1000 0.000000 0.000000 0.000000 0.000000 0.000000 0.000000
B1000 0.000000 0.000000 0.000000 0.000000 0.000000 0.000000
B1000 0.000000 0.000000 0.000000 0.000000 0.000000 0.000000
B1000 0.000000 0.000000 0.000000 0.000000 0.000000 0.000000
B1000 0.000000 0.000000 0.000000 0.000000 0.000000 0.000000
B1000 0.000000 0.000000 0.000000 0.000000 0.000000 0.000000
B1000 0.000000 0.000000 0.000000 0.000000 0.000000 0.000000
B1000 0.000000 0.000000 0.000000 0.000000 0.000000 0.000000
B1000 0.000000 0.000000 0.000000 0.000000 0.000000 0.000000
B1000 0.000000 0.000000 0.000000 0.000000 0.000000 0.000000
B1000 0.000000 0.000000 0.000000 0.000000 0.000000 0.000000
B1000 0.000000 0.000000 0.000000 0.000000 0.000000 0.000000
B1000 0.000000 0.000000 0.000000 0.000000 0.000000 0.000000
B1000 0.000000 0.000000 0.000000 0.000000 0.000000 0.000000
B1000 0.000000 0.000000 0.000000 0.000000 0.000000 0.000000
B1000 0.000000 0.000000 0.000000 0.000000 0.000000 0.000000
B1000 0.000000 0.000000 0.000000 0.000000 0.000000 0.000000
B1000 0.000000 0.000000 0.000000 0.000000 0.000000 0.000000
B1000 0.000000 0.000000 0.000000 0.000000 0.000000 0.000000
B1000 0.000000 0.000000 0.000000 0.000000 0.000000 0.000000
B1000 0.000000 0.000000 0.000000 0.000000 0.000000 0.000000
B1000 0.000000 0.000000 0.000000 0.000000 0.000000 0.000000
B1000 0.000000 0.000000 0.000000 0.000000 0.000000 0.000000
B1000 0.000000 0.000000 0.000000 0.000000 0.000000 0.000000
B1000 0.000000 0.000000 0.000000 0.000000 0.000000 0.000000
B1000 0.000000 0.000000 0.000000 0.000000 0.000000 0.000000
B1000 0.000000 0.000000 0.000000 0.000000 0.000000 0.000000
B1000 0.000000 0.000000 0.000000 0.000000 0.000000 0.000000
B1000 0.000000 0.000000 0.000000 0.000000 0.000000 0.000000
B1000 0.000000 0.000000 0.000000 0.000000 0.000000 0.000000
B1000 0.000000 0.000000 0.000000 0.000000 0.000000 0.000000
B1000 0.000000 0.000000 0.000000 0.000000 0.000000 0.000000
B1000 0.000000 0.000000 0.000000 0.000000 0.000000 0.000000
B1000 0.000000 0.000000 0.000000 0.000000 0.000000 0.000000
B1000 0.000000 0.000000 0.000000 0.000000 0.000000 0.000000
B1000 0.000000 0.000000 0.000000 0.000000 0.000000 0.000000
B1000 0.000000 0.000000 0.000000 0.000000 0.000000 0.000000
B1000 0.000000 0.000000 0.000000 0.000000 0.000000 0.000000
B1000 0.000000 0.000000 0.000000 0.000000 0.000000 0.000000
B1000 0.000000 0.000000 0.000000 0.000000 0.000000 0.000000
B1000 0.000000 0.000000 0.000000 0.000000 0.000000 0.000000
B1000 0.000000 0.000000 0.000000 0.000000 0.000000 0.000000
B1000 0.000000 0.000000 0.000000 0.000000 0.000000 0.000000
B1000 0.000000 0.000000 0.000000 0.000000 0.000000 0.000000
B1000 0.000000 0.000000 0.000000 0.000000 0.000000 0.000000
B1000 0.000000 0.000000 0.000000 0.000000 0.000000 0.000000
B1000 0.000000 0.000000 0.000000 0.000000 0.000000 0.000000
B1000 0.000000 0.000000 0.000000 0.000000 0.000000 0.000000
B1000 0.000000 0.000000 0.000000 0.000000 0.000000 0.000000
B1000 0.000000 0.000000 0.000000 0.000000 0.000000 0.000000
B1000 0.000000 0.000000 0.000000 0.000000 0.000000 0.000000
B1000 0.000000 0.000000 0.000000 0.000000 0.000000 0.000000
B1000 0.000000 0.000000 0.000000 0.000000 0.000000 0.000000
B1000 0.000000 0.000000 0.000000 0.000000 0.000000 0.000000
B1000 0.000000 0.000000 0.000000 0.000000 0.000000 0.000000
B1000 0.000000 0.000000 0.000000 0.000000 0.000000 0.000000
B1000 0.000000 0.000000 0.000000 0.000000 0.000000 0.000000
B1000 0.000000 0.000000 0.000000 0.000000 0.000000 0.000000
B1000 0.000000 0.000000 0.000000 0.000000 0.000000 0.000000
B1000 0.000000 0.000000 0.000000 0.000000 0.000000 0.000000
B1000 0.000000 0.000000 0.000000 0.000000 0.000000 0.000000
B1000 0.000000 0.000000 0.000000 0.000000 0.000000 0.000000
B1000 0.000000 0.000000 0.000000 0.000000 0.000000 0.000000
B1000 0.000000 0.000000 0.000000 0.000000 0.000000 0.000000
B1000 0.000000 0.000000 0.000000 0.000000 0.000000 0.000000
B1000 0.000000 0.000000 0.000000 0.000000 0.000000 0.000000
B1000 0.000000 0.000000 0.000000 0.000000 0.000000 0.000000
B1000 0.000000 0.000000 0.000000 0.000000 0.000000 0.000000
B1000 0.000000 0.000000 0.000000 0.000000 0.000000 0.000000
B1000 0.000000 0.000000 0.000000 0.000000 0.000000 0.000000
B1000 0.000000 0.000000 0.000000 0.000000 0.000000 0.000000
B1000 0.000000 0.000000 0.000000 0.000000 0.000000 0.000000
B1000 0.000000 0.000000 0.000000 0.000000 0.000000 0.000000
B1000 0.000000 0.000000 0.000000 0.000000 0.000000 0.000000
B1000 0.000000 0.000000 0.000000 0.000000 0.000000 0.000000
B1000 0.000000 0.000000 0.000000 0.000000 0.000000 0.000000
B1000 0.000000 0.000000 0.000000 0.000000 0.000000 0.000000
B1000 0.000000 0.000000 0.000000 0.000000 0.000000 0.000000
B1000 0.000000 0.000000 0.000000 0.000000 0.000000 0.000000
B1000 0.000000 0.000000 0.000000 0.000000 0.000000 0.000000
B1000 0.000000 0.000000 0.000000 0.000000 0.000000 0.000000
B1000 0.000000 0.000000 0.000000 0.000000 0.000000 0.000000
B1000 0.000000 0.000000 0.000000 0.000000 0.000000 0.000000
B1000 0.000000 0.000000 0.000000 0.000000 0.000000 0.000000
B1000 0.000000 0.000000 0.000000 0.000000 0.000000 0.000000
B1000 0.000000 0.000000 0.000000 0.000000 0.000000 0.000000
B1000 0.000000 0.000000 0.000000 0.000000 0.000000 0.000000
B1000 0.000000 0.000000 0.000000 0.000000 0.000000 0.000000
B1000 0.000000 0.000000 0.000000 0.000000 0.000000 0.000000
B1000 0.000000 0.000000 0.000000 0.000000 0.000000 0.000000
B1000 0.000000 0.000000 0.000000 0.000000 0.000000 0.000000
B1000 0.000000 0.000000 0.000000 0.000000 0.000000 0.000000
B1000 0.000000 0.000000 0.000000 0.000000 0.000000 0.000000
B1000 0.000000 0.000000 0.000000 0.000000 0.000000 0.000000
B1000 0.000000 0.000000 0.000000 0.000000 0.000000 0.000000
B1000 0.000000 0.000000 0.000000 0.000000 0.000000 0.000000
B1000 0.000000 0.000000 0.000000 0.000000 0.000000 0.000000
B1000 0.000000 0.000000 0.000000 0.000000 0.000000 0.000000
B1000 0.000000 0.000000 0.000000 0.000000 0.000000 0.000000
B1000 0.000000 0.000000 0.000000 0.000000 0.000000 0.000000
B1000 0.000000 0.000000 0.000000 0.000000 0.000000 0.000000
B1000 0.000000 0.000000 0.000000 0.000000 0.000000 0.000000
B1000 0.000000 0.000000 0.000000 0.000000 0.000000 0.000000
B1000 0.000000 0.000000 0.000000 0.000000 0.000000 0.000000
B1000 0.000000 0.000000 0.000000 0.000000 0.000000 0.000000
B1000 0.000000 0.000000 0.000000 0.000000 0.000000 0.000000
B1000 0.000000 0.000000 0.000000 0.000000 0.000000 0.000000
B1000 0.000000 0.000000 0.000000 0.000000 0.000000 0.000000
B1000 0.000000 0.000000 0.000000 0.000000 0.000000 0.000000
B1000 0.000000 0.000000 0.000000 0.000000 0.000000 0.000000
B1000 0.000000 0.000000 0.000000 0.000000 0.000000 0.000000
B1000 0.000000 0.000000 0.000000 0.000000 0.000000 0.000000
B1000 0.000000 0.000000 0.000000 0.000000 0.000000 0.000000
B1000 0.000000 0.000000 0.000000 0.000000 0.000000 0.000000
B1000 0.000000 0.000000 0.000000 0.000000 0.000000 0.000000
B1000 0.000000 0.000000 0.000000 0.000000 0.000000 0.000000
B1000 0.000000 0.000000 0.000000 0.000000 0.000000 0.000000
B1000 0.000000 0.000000 0.000000 0.000000 0.000000 0.000000
B1000 0.000000 0.000000 0.000000 0.000000 0.000000 0.000000
B1000 0.000000 0.000000 0.000000 0.000000 0.000000 0.000000
B1000 0.000000 0.000000 0.000000 0.000000 0.000000 0.000000
B1000 0.000000 0.000000 0.000000 0.000000 0.000000 0.000000
B1000 0.000000 0.000000 0.000000 0.000000 0.000000 0.000000
B1000 0.000000 0.000000 0.000000 0.000000 0.000000 0.000000
B1000 0.000000 0.000000 0.000000 0.000000 0.000000 0.000000
B1000 0.000000 0.000000 0.000000 0.000000 0.000000 0.000000
B1000 0.000000 0.000000 0.000000 0.000000 0.000000 0.000000
B1000 0.000000 0.000000 0.000000 0.000000 0.000000 0.000000
B1000 0.000000 0.000000 0.000000 0.000000 0.000000 0.000000
B1000 0.000000 0.000000 0.000000 0.000000 0.000000 0.000000
B1000 0.000000 0.000000 0.000000 0.000000 0.000000 0.000000
B1000 0.000000 0.000000 0.000000 0.000000 0.000000 0.000000
B1000 0.000000 0.000000 0.000000 0.000000 0.000000 0.000000
B1000 0.000000 0.000000 0.000000 0.000000 0.000000 0.000000
B1000 0.000000 0.000000 0.000000 0.000000 0.000000 0.000000
B1000 0.000000 0.000000 0.000000 0.000000 0.000000 0.000000
B1000 0.000000 0.000000 0.000000 0.000000 0.000000 0.000000
B1000 0.000000 0.000000 0.000000 0.000000 0.000000 0.000000
B1000 0.000000 0.000000 0.000000 0.000000 0.000000 0.000000
B1000 0.000000 0.000000 0.000000 0.000000 0.000000 0.000000
B1000 0.000000 0.000000 0.000000 0.000000 0.000000 0.000000
B1000 0.000000 0.000000 0.000000 0.000000 0.000000 0.000000
B1000 0.000000 0.000000 0.000000 0.000000 0.000000 0.000000
B1000 0.000000 0.000000 0.000000 0.000000 0.000000 0.000000
B1000 0.000000 0.000000 0.000000 0.000000 0.000000 0.000000
B1000 0.000000 0.000000 0.000000 0.000000 0.000000 0.000000
B1000 0.000000 0.000000 0.000000 0.000000 0.000000 0.000000
B1000 0.000000 0.000000 0.000000 0.000000 0.000000 0.000000
B1000 0.000000 0.000000 0.000000 0.000000 0.000000 0.000000
B1000 0.000000 0.000000 0.000000 0.000000 0.000000 0.000000
B1000 0.000000 0.000000 0.000000 0.000000 0.000000 0.000000
B1000 0.000000 0.000000 0.000000 0.000000 0.000000 0.000000
B1000 0.000000 0.000000 0.000000 0.000000 0.000000 0.000000
B1000 0.000000 0.000000 0.000000 0.000000 0.000000 0.000000
B1000 0.000000 0.000000 0.000000 0.000000 0.000000 0.000000
B1000 0.000000 0.000000 0.000000 0.000000 0.000000 0.000000
B1000 0.000000 0.000000 0.000000 0.000000 0.000000 0.000000
B1000 0.000000 0.000000 0.000000 0.000000 0.000000 0.000000
B1000 0.000000 0.000000 0.000000 0.000000 0.000000 0.000000
B1000 0.000000 0.000000 0.000000 0.000000 0.000000 0.000000
B1000 0.000000 0.000000 0.000000 0.000000 0.000000 0.000000
B1000 0.000000 0.000000 0.000000 0.000000 0.000000 0.000000
B1000 0.000000 0.000000 0.000000 0.000000 0.000000 0.000000
B1000 0.000000 0.000000 0.000000 0.000000 0.000000 0.000000
B1000 0.000000 0.000000 0.000000 0.000000 0.000000 0.000000
B1000 0.000000 0.000000 0.000000 0.000000 0.000000 0.000000
B1000 0.000000 0.000000 0.000000 0.000000 0.000000 0.000000
B1000 0.000000 0.000000 0.000000 0.000000 0.000000 0.000000
B1000 0.000000 0.000000 0.000000 0.000000 0.000000 0.000000
B1000 0.000000 0.000000 0.000000 0.000000 0.000000 0.000000
B1000 0.000000 0.000000 0.000000 0.000000 0.000000 0.000000
B1000 0.000000 0.000000 0.000000 0.000000 0.000000 0.000000
B1000 0.000000 0.000000 0.000000 0.000000 0.000000 0.000000
B1000 0.000000 0.000000 0.000000 0.000000 0.000000 0.000000
B1000 0.000000 0.000000 0.000000 0.000000 0.000000 0.000000
B1000 0.000000 0.000000 0.000000 0.000000 0.000000 0.000000
B1000 0.000000 0.000000 0.000000 0.000000 0.000000 0.000000
B1000 0.000000 0.000000 0.000000 0.000000 0.000000 0.000000
B1000 0.000000 0.000000 0.000000 0.000000 0.000000 0.000000
B1000 0.000000 0.000000 0.000000 0.000000 0.000000 0.000000
B1000 0.000000 0.000000 0.000000 0.000000 0.000000 0.000000
B1000 0.000000 0.000000 0.000000 0.000000 0.000000 0.000000
B1000 0.000000 0.000000 0.000000 0.000000 0.000000 0.000000
B1000 0.000000 0.000000 0.000000 0.000000 0.000000 0.000000
B1000 0.000000 0.000000 0.000000 0.000000 0.000000 0.000000
B1000 0.000000 0.000000 0.000000 0.000000 0.000000 0.000000
B1000 0.000000 0.000000 0.000000 0.000000 0.000000 0.000000
B1000 0.000000 0.000000 0.000000 0.000000 0.000000 0.000000
B1000 0.000000 0.000000 0.000000 0.000000 0.000000 0.000000
B1000 0.000000 0.000000 0.000000 0.000000 0.000000 0.000000
B1000 0.000000 0.000000 0.000000 0.000000 0.000000 0.000000
B1000 0.000000 0.000000 0.000000 0.000000 0.000000 0.000000
B1000 0.000000 0.000000 0.000000 0.000000 0.000000 0.000000
B1000 0.000000 0.000000 0.000000 0.000000 0.000000 0.000000
B1000 0.000000 0.000000 0.000000 0.000000 0.000000 0.000000
B1000 0.000000 0.000000 0.000000 0.000000 0.000000 0.000000
B1000 0.000000 0.000000 0.000000 0.000000 0.000000 0.000000
B1000 0.000000 0.000000 0.000000 0.000000 0.000000 0.000000
B1000 0.000000 0.000000 0.000000 0.000000 0.000000 0.000000
B1000 0.000000 0.000000 0.000000 0.000000 0.000000 0.000000
B1000 0.000000 0.000000 0.000000 0.000000 0.000000 0.000000
B1000 0.000000 0.000000 0.000000 0.000000 0.000000 0.000000
B1000 0.000000 0.000000 0.000000 0.000000 0.000000 0.000000
B1000 0.000000 0.000000 0.000000 0.000000 0.000000 0.000000
B1000 0.000000 0.000000 0.000000 0.000000 0.000000 0.000000
B1000 0.000000 0.000000 0.000000 0.000000 0.000000 0.000000
B1000 0.000000 0.000000 0.000000 0.000000 0.000000 0.000000
B1000 0.000000 0.000000 0.000000 0.000000 0.000000 0.000000
B1000 0.000000 0.000000 0.000000 0.000000 0.000000 0.000000
B1000 0.000000 0.000000 0.000000 0.000000 0.000000 0.000000
B1000 0.000000 0.000000 0.000000 0.000000 0.000000 0.000000
B1000 0.000000 0.000000 0.000000 0.000000 0.000000 0.000000
B1000 0.000000 0.000000 0.000000 0.000000 0.000000 0.000000
B1000 0.000000 0.000000 0.000000 0.000000 0.000000 0.000000
B1000 0.000000 0.000000 0.000000 0.000000 0.000000 0.000000
B1000 0.000000 0.000000 0.000000 0.000000 0.000000 0.000000
B1000 0.000000 0.000000 0.000000 0.000000 0.000000 0.000000
B1000 0.000000 0.000000 0.000000 0.000000 0.000000 0.000000
B1000 0.000000 0.000000 0.000000 0.000000 0.000000 0.000000
B1000 0.000000 0.000000 0.000000 0.000000 0.000000 0.000000
B1000 0.000000 0.000000 0.000000 0.000000 0.000000 0.000000
B1000 0.000000 0.000000 0.000000 0.000000 0.000000 0.000000
B1000 0.000000 0.000000 0.000000 0.000000 0.000000 0.000000
B1000 0.000000 0.000000 0.000000 0.000000 0.000000 0.000000
B1000 0.000000 0.000000 0.000000 0.000000 0.000000 0.000000
B1000 0.000000 0.000000 0.000000 0.000000 0.000000 0.000000
B1000 0.000000 0.000000 0.000000 0.000000 0.000000 0.000000
B1000 0.000000 0.000000 0.000000 0.000000 0.000000 0.000000
B1000 0.000000 0.000000 0.000000 0.000000 0.000000 0.000000
B1000 0.000000 0.000000 0.000000 0.000000 0.000000 0.000000
B1000 0.000000 0.000000 0.000000 0.000000 0.000000 0.000000
B1000 0.000000 0.000000 0.000000 0.000000 0.000000 0.000000
B1000 0.000000 0.000000 0.000000 0.000000 0.000000 0.000000
B1000 0.000000 0.000000 0.000000 0.000000 0.000000 0.000000
B1000 0.000000 0.000000 0.000000 0.000000 0.000000 0.000000
B1000 0.000000 0.000000 0.000000 0.000000 0.000000 0.000000
B1000 0.000000 0.000000 0.000000 0.000000 0.000000 0.000000
B1000 0.000000 0.000000 0.000000 0.000000 0.000000 0.000000
B1000 0.000000 0.000000 0.000000 0.000000 0.000000 0.000000
B1000 0.000000 0.000000 0.000000 0.000000 0.000000 0.000000
B1000 0.000000 0.000000 0.000000 0.000000 0.000000 0.000000
B1000 0.000000 0.000000 0.000000 0.000000 0.000000 0.000000
B1000 0.000000 0.000000 0.000000 0.000000 0.000000 0.000000
B1000 0.000000 0.000000 0.000000 0.000000 0.000000 0.000000
B1000 0.000000 0.000000 0.000000 0.000000 0.000000 0.000000
B1000 0.000000 0.000000 0.000000 0.000000 0.000000 0.000000
B1000 0.000000 0.000000 0.000000 0.000000 0.000000 0.000000
B1000 0.000000 0.000000 0.000000 0.000000 0.000000 0.000000
B1000 0.000000 0.000000 0.000000 0.000000 0.000000 0.000000
B1000 0.000000 0.000000 0.000000 0.000000 0.000000 0.000000
B1000 0.000000 0.000000 0.000000 0.000000 0.000000 0.000000
B1000 0.000000 0.000000 0.000000 0.000000 0.000000 0.000000
B1000 0.000000 0.000000 0.000000 0.000000 0.000000 0.000000
B1000 0.000000 0.000000 0.000000 0.000000 0.000000 0.000000
B1000 0.000000 0.000000 0.000000 0.000000 0.000000 0.000000
B1000 0.000000 0.000000 0.000000 0.000000 0.000000 0.000000
B1000 0.000000 0.000000 0.000000 0.000000 0.000000 0.000000
B1000 0.000000 0.000000 0.000000 0.000000 0.000000 0.000000
B1000 0.000000 0.000000 0.000000 0.000000 0.000000 0.000000
B1000 0.000000 0.000000 0.000000 0.000000 0.000000 0.000000
B1000 0.000000 0.000000 0.000000 0.000000 0.000000 0.000000
B1000 0.000000 0.000000 0.000000 0.000000 0.000000 0.000000
B1000 0.000000 0.000000 0.000000 0.000000 0.000000 0.000000
B1000 0.000000 0.000000 0.000000 0.000000 0.000000 0.000000
B1000 0.000000 0.000000 0.000000 0.000000 0.000000 0.000000
B1000 0.000000 0.000000 0.000000 0.000000 0.000000 0.000000
B1000 0.000000 0.000000 0.000000 0.000000 0.000000 0.000000
B1000 0.000000 0.000000 0.000000 0.000000 0.000000 0.000000
B1000 0.000000 0.000000 0.000000 0.000000 0.000000 0.000000
B1000 0.000000 0.000000 0.000000 0.000000 0.000000 0.000000
B1000 0.000000 0.000000 0.000000 0.000000 0.000000 0.000000
B1000 0.000000 0.000000 0.000000 0.000000 0.000000 0.000000
B1000 0.000000 0.000000 0.000000 0.000000 0.000000 0.000000
B1000 0.000000 0.000000 0.000000 0.000000 0.000000 0.000000
B1000 0.000000 0.000000 0.000000 0.000000 0.000000 0.000000
B1000 0.000000 0.000000 0.000000 0.000000 0.000000 0.000000
B1000 0.000000 0.000000 0.000000 0.000000 0.000000 0.000000
B1000 0.000000 0.000000 0.000000 0.000000 0.000000 0.000000
B1000 0.000000 0.000000 0.000000 0.000000 0.000000 0.000000
B1000 0.000000 0.000000 0.000000 0.000000 0.000000 0.000000
B1000 0.000000 0.000000 0.000000 0.000000 0.000000 0.000000
B1000 0.000000 0.000000 0.000000 0.000000 0.000000 0.000000
B1000 0.000000 0.000000 0.000000 0.000000 0.000000 0.000000
B1000 0.000000 0.000000 0.000000 0.000000 0.000000 0.000000
B1000 0.000000 0.000000 0.000000 0.000000 0.000000 0.000000
B1000 0.000000 0.000000 0.000000 0.000000 0.000000 0.000000
B1000 0.000000 0.000000 0.000000 0.000000 0.000000 0.000000
B1000 0.000000 0.000000 0.000000 0.000000 0.000000 0.000000
B1000 0.000000 0.000000 0.000000 0.000000 0.000000 0.000000
B1000 0.000000 0.000000 0.000000 0.000000 0.000000 0.000000
B1000 0.000000 0.000000 0.000000 0.000000 0.000000 0.000000
B1000 0.000000 0.000000 0.000000 0.000000 0.000000 0.000000
B1000 0.000000 0.000000 0.000000 0.000000 0.000000 0.000000
B1000 0.000000 0.000000 0.000000 0.000000 0.000000 0.000000
B1000 0.000000 0.000000 0.000000 0.000000 0.000000 0.000000
B1000 0.000000 0.000000 0.000000 0.000000 0.000000 0.000000
B1000 0.000000 0.000000 0.000000 0.000000 0.000000 0.000000
B1000 0.000000 0.000000 0.000000 0.000000 0.000000 0.000000
B1000 0.000000 0.000000 0.000000 0.000000 0.000000 0.000000
B1000 0.000000 0.000000 0.000000 0.000000 0.000000 0.000000
B1000 0.000000 0.000000 0.000000 0.000000 0.000000 0.000000
B1000 0.000000 0.000000 0.000000 0.000000 0.000000 0.000000
B1000 0.000000 0.000000 0.000000 0.000000 0.000000 0.000000
B1000 0.000000 0.000000 0.000000 0.000000 0.000000 0.000000
B1000 0.000000 0.000000 0.000000 0.000000 0.000000 0.000000
B1000 0.000000 0.000000 0.000000 0.000000 0.000000 0.000000
B1000 0.000000 0.000000 0.000000 0.000000 0.000000 0.000000
B1000 0.000000 0.000000 0.000000 0.000000 0.000000 0.000000
B1000 0.000000 0.000000 0.000000 0.000000 0.000000 0.000000
B1000 0.000000 0.000000 0.000000 0.000000 0.000000 0.000000
B1000 0.000000 0.000000 0.000000 0.000000 0.000000 0.000000
B1000 0.000000 0.000000 0.000000 0.000000 0.000000 0.000000
B1000 0.000000 0.000000 0.000000 0.000000 0.000000 0.000000
B1000 0.000000 0.000000 0.000000 0.000000 0.000000 0.000000
B1000 0.000000 0.000000 0.000000 0.000000 0.000000 0.000000
B1000 0.000000 0.000000 0.000000 0.000000 0.000000 0.000000
B1000 0.000000 0.000000 0.000000 0.000000 0.000000 0.000000
B1000 0.000000 0.000000 0.000000 0.000000 0.000000 0.000000
B1000 0.000000 0.000000 0.000000 0.000000 0.000000 0.000000
B1000 0.000000 0.000000 0.000000 0.000000 0.000000 0.000000
B1000 0.000000 0.000000 0.000000 0.000000 0.000000 0.000000
B1000 0.000000 0.000000 0.000000 0.000000 0.000000 0.000000
B1000 0.000000 0.000000 0.000000 0.000000 0.000000 0.000000
B1000 0.000000 0.000000 0.000000 0.000000 0.000000 0.000000
B1000 0.000000 0.000000 0.000000 0.000000 0.000000 0.000000
B1000 0.000000 0.000000 0.000000 0.000000 0.000000 0.000000
B1000 0.000000 0.000000 0.000000 0.000000 0.000000 0.000000
B1000 0.000000 0.000000 0.000000 0.000000 0.000000 0.000000
B1000 0.000000 0.000000 0.000000 0.000000 0.000000 0.000000
B1000 0.000000 0.000000 0.000000 0.000000 0.000000 0.000000
B1000 0.000000 0.000000 0.000000 0.000000 0.000000 0.000000
B1000 0.000000 0.000000 0.000000 0.000000 0.000000 0.000000
B1000 0.000000 0.000000 0.000000 0.000000 0.000000 0.000000